nano nono i dont know 123
test test test.
new line.
Add line
ChokoChoko
