nano nono i
test test test.
new line.
Add line
ChokoChoko
loco roko
